New Line.LINE1 Bus1=2 Bus2=3 phases=3 Linecode=D2 Length=0.061 Units=km
New Line.LINE2 Bus1=3 Bus2=4 phases=3 Linecode=D2 Length=0.061 Units=km
New Line.LINE3 Bus1=4 Bus2=5 phases=3 Linecode=D2 Length=0.061 Units=km
New Line.LINE4 Bus1=5 Bus2=6 phases=3 Linecode=D2 Length=0.061 Units=km
New Line.LINE5 Bus1=6 Bus2=7 phases=3 Linecode=D2 Length=0.061 Units=km
