New Line.LINE1 Bus1=2 Bus2=3 phases=3 Linecode=D2 Length=0.305 Units=km
