New Line.LINE1 Bus1=2 Bus2=3 phases=3 Linecode=D1 Length=0.06666666666666667 Units=km
New Line.LINE2 Bus1=3 Bus2=4 phases=3 Linecode=D1 Length=0.06666666666666667 Units=km
New Line.LINE3 Bus1=4 Bus2=5 phases=3 Linecode=D1 Length=0.06666666666666667 Units=km
