New Line.LINE1 Bus1=2 Bus2=3 phases=3 Linecode=D1 Length=2 Units=m