New Load.LOAD0 Phases=1 Bus1=3.1 kV=0.230 kW=5.52 PF=1 spectrum=kona_24A
