New Load.LOAD1 Phases=1 Bus1=2.1 kV=0.230 kW=7.2 PF=1 spectrum=Kona_CC
New Load.LOAD2 Phases=1 Bus1=3.3 kV=0.230 kW=6.6 PF=1 spectrum=Van_CC
New Load.LOAD3 Phases=1 Bus1=3.3 kV=0.230 kW=7.2 PF=1 spectrum=Kona_CC
