New Load.LOAD0 Phases=1 Bus1=3.1 kV=0.230 kW=5.52 PF=1 spectrum=kona_24A
New Load.LOAD1 Phases=1 Bus1=3.2 kV=0.230 kW=5.52 PF=1 spectrum=kona_24A
New Load.LOAD2 Phases=1 Bus1=3.3 kV=0.230 kW=5.52 PF=1 spectrum=kona_24A
New Load.LOAD3 Phases=1 Bus1=3.1 kV=0.230 kW=5.52 PF=1 spectrum=kona_24A
New Load.LOAD4 Phases=1 Bus1=3.2 kV=0.230 kW=5.52 PF=1 spectrum=kona_24A
New Load.LOAD5 Phases=1 Bus1=3.3 kV=0.230 kW=5.52 PF=1 spectrum=kona_24A
New Load.LOAD6 Phases=1 Bus1=3.1 kV=0.230 kW=5.52 PF=1 spectrum=kona_24A
New Load.LOAD7 Phases=1 Bus1=3.2 kV=0.230 kW=5.52 PF=1 spectrum=kona_24A
New Load.LOAD8 Phases=1 Bus1=3.3 kV=0.230 kW=5.52 PF=1 spectrum=kona_24A
New Load.LOAD9 Phases=1 Bus1=3.1 kV=0.230 kW=5.52 PF=1 spectrum=kona_24A
New Load.LOAD10 Phases=1 Bus1=3.2 kV=0.230 kW=5.52 PF=1 spectrum=kona_24A
New Load.LOAD11 Phases=1 Bus1=3.3 kV=0.230 kW=5.52 PF=1 spectrum=kona_24A
New Load.LOAD12 Phases=1 Bus1=3.1 kV=0.230 kW=5.52 PF=1 spectrum=kona_24A
New Load.LOAD13 Phases=1 Bus1=3.2 kV=0.230 kW=5.52 PF=1 spectrum=kona_24A
New Load.LOAD14 Phases=1 Bus1=3.3 kV=0.230 kW=5.52 PF=1 spectrum=kona_24A
New Load.LOAD15 Phases=1 Bus1=3.1 kV=0.230 kW=5.52 PF=1 spectrum=kona_24A
New Load.LOAD16 Phases=1 Bus1=3.2 kV=0.230 kW=5.52 PF=1 spectrum=kona_24A
New Load.LOAD17 Phases=1 Bus1=3.3 kV=0.230 kW=5.52 PF=1 spectrum=kona_24A
