New Load.LOAD1 Phases=1 Bus1=9.1 kV=0.230 kW=6.6 PF=1 spectrum=Van_CC
New Load.LOAD2 Phases=1 Bus1=9.2 kV=0.230 kW=6.6 PF=1 spectrum=Van_CC
New Load.LOAD3 Phases=1 Bus1=9.3 kV=0.230 kW=6.6 PF=1 spectrum=Van_CC
New Load.LOAD4 Phases=1 Bus1=17.1 kV=0.230 kW=6.6 PF=1 spectrum=Van_CC
New Load.LOAD5 Phases=1 Bus1=17.2 kV=0.230 kW=6.6 PF=1 spectrum=Van_CC
New Load.LOAD6 Phases=1 Bus1=17.3 kV=0.230 kW=6.6 PF=1 spectrum=Van_CC
New Load.LOAD7 Phases=1 Bus1=15.1 kV=0.230 kW=6.6 PF=1 spectrum=Van_CC
New Load.LOAD8 Phases=1 Bus1=15.2 kV=0.230 kW=6.6 PF=1 spectrum=Van_CC
New Load.LOAD9 Phases=1 Bus1=15.3 kV=0.230 kW=6.6 PF=1 spectrum=Van_CC
New Load.LOAD10 Phases=1 Bus1=5.1 kV=0.230 kW=6.6 PF=1 spectrum=Van_CC
New Load.LOAD11 Phases=1 Bus1=5.2 kV=0.230 kW=6.6 PF=1 spectrum=Van_CC
New Load.LOAD12 Phases=1 Bus1=5.3 kV=0.230 kW=6.6 PF=1 spectrum=Van_CC
New Load.LOAD13 Phases=1 Bus1=18.1 kV=0.230 kW=6.6 PF=1 spectrum=Van_CC
New Load.LOAD14 Phases=1 Bus1=18.2 kV=0.230 kW=6.6 PF=1 spectrum=Van_CC
New Load.LOAD15 Phases=1 Bus1=18.3 kV=0.230 kW=6.6 PF=1 spectrum=Van_CC
