Set DefaultBaseFrequency=50  ! for European system
New circuit.LVTest
Edit Vsource.Source BasekV=0.398 pu=1.00  R1=0.053 X1=0.009
Redirect LineCode.txt
Redirect Lines.txt
!Redirect Transformers.txt
Redirect Loads.txt
New "Spectrum.pwm6" NumHarm=50 CSVFile=Spectrum.csv
Redirect Monitors.txt
!Redirect Generators.txt
Set voltagebases=[.398]
Calcvoltagebases
LatLongCoords XY_Position.csv
